ieee33-dg-voltage-regulation/results/S1_Base_Losses.csv
Element,  Total(W), Total(var),  I2R(W), I2X(var), No-load(W), No-load(var)
Transformer.SUBTRANS, 38318.53, 322797.6, 28244.33, 322797.6, 10074.2, 4.547474E-13
Line.L1, 11561.68, 5721.726, 11561.68, 5721.726, 0, 0
Line.L2, 48622.33, 24595.69, 48622.33, 24595.69, 0, 0
Line.L3, 18281.72, 9145.072, 18281.72, 9145.072, 0, 0
Line.L4, 17109.39, 8550.842, 17109.39, 8550.842, 0, 0
Line.L5, 34928.62, 29992.91, 34928.62, 29992.91, 0, 0
Line.L6, 1769.214, 5692.54, 1769.214, 5692.54, 0, 0
Line.L7, 4403.165, 1300.739, 4403.165, 1300.739, 0, 0
Line.L8, 3726.599, 2524.673, 3726.599, 2524.673, 0, 0
Line.L9, 3156.275, 2086.353, 3156.275, 2086.353, 0, 0
Line.L10, 488.711, 11.73331, 488.711, 11.73331, 0, 0
Line.L11, 774.6829, 106.6683, 774.6829, 106.6683, 0, 0
Line.L12, 2331.342, 1685.91, 2331.342, 1685.91, 0, 0
Line.L13, 635.7466, 689.7156, 635.7466, 689.7156, 0, 0
Line.L14, 309.5282, 128.9209, 309.5282, 128.9209, 0, 0
Line.L15, 243.3449, 31.5521, 243.3449, 31.5521, 0, 0
Line.L16, 216.9388, 143.9873, 216.9388, 143.9873, 0, 0
Line.L17, 45.78098, -109.372, 45.78098, -109.372, 0, 0
Line.L18, 159.5241, -19.15833, 159.5241, -19.15833, 0, 0
Line.L19, 824.8163, 572.5346, 824.8163, 572.5346, 0, 0
Line.L20, 99.87795, -53.27747, 99.87795, -53.27747, 0, 0
Line.L21, 43.26824, -112.5238, 43.26824, -112.5238, 0, 0
Line.L22, 3152.484, 1987.832, 3152.484, 1987.832, 0, 0
Line.L23, 5097.078, 3860.366, 5097.078, 3860.366, 0, 0
Line.L24, 1275.841, 835.475, 1275.841, 835.475, 0, 0
Line.L25, 2341.434, 1036.689, 2341.434, 1036.689, 0, 0
Line.L26, 2984.224, 1364.165, 2984.224, 1364.165, 0, 0
Line.L27, 10084.41, 8738.133, 10084.41, 8738.133, 0, 0
Line.L28, 6973.176, 5924.756, 6973.176, 5924.756, 0, 0
Line.L29, 3459.128, 1613.606, 3459.128, 1613.606, 0, 0
Line.L30, 1397.812, 1234.276, 1397.812, 1234.276, 0, 0
Line.L31, 186.7175, 71.19927, 186.7175, 71.19927, 0, 0
Line.L32, 11.51644, -128.3436, 11.51644, -128.3436, 0, 0
